*MODEL INPUT FILE            B     1     1     1   999     0
*FILES              
MODEL          MZCER046
FILEX          EBPL8501.MZX C:\DSSAT45\maize\                                                               
FILEA          EBPL8501.MZA C:\DSSAT45\maize\                                                               
FILET          EBPL8501.MZT C:\DSSAT45\maize\                                                               
SPECIES        MZCER046.SPE C:\DSSAT45\GENOTYPE\                                                            
ECOTYPE        MZCER046.ECO C:\DSSAT45\GENOTYPE\                                                            
CULTIVAR       MZCER046.CUL C:\DSSAT45\GENOTYPE\                                                            
PESTS          MZCER046.PST C:\DSSAT45\PEST\                                                                
SOILS          EB.SOL       C:\DSSAT45\SOIL\                                                                
WEATHER        EBCH8401.WTH C:\DSSAT45\Weather\                                                             
OUTPUT         OVERVIEW
*SIMULATION CONTROL 
                   1     1     S 1984357  2150 RYL, 1984-85 RAINFED MAI 
                   Y     Y     N     N     N     Y     N     Y     M
                   M     M     E     R     S     C     R     1     G     S     2     D
                   R     R     R     R     M
                   N     Y     Y     1     Y     Y     Y     Y     N     Y     Y     N     N
!AUTOMATIC MANAGEM  
               1984354 1985002   40.  100.   30.   40.   10.
                 30.   50.  100. GS000 IR001  10.0 1.000
                 30.   50.   25. FE001 GS000
                100.     1   20.
                     0 1985360  100.    0.
*EXP.DETAILS        
  1EBPL8501 MZ MAIZE RESPONSE TO MUCUNA GREEN MANURE, BRAZIL               
*TREATMENTS         
  1 1 0 0 NO MUCUNA TOPS, MAIZE    
*CULTIVARS          
   MZ IB0070 CARGILL 111S    
*FIELDS             
   EBPL0001 EBCH8401   0.0    0. DR000    0. 100.0 00000 -99    120. EBMZ850001
           0.00000         0.00000      0.00               1.0  100.   1.0   0.0   -99   -99
*INITIAL CONDITIONS 
   MZ    1984357  1000     0  1.00  1.00   0.0     1  1.00  0.00  100.   15.
      5. 0.311 0.100  5.50
     15. 0.311 0.100  5.50
     30. 0.317 0.100  4.70
     45. 0.327 0.100  4.20
     60. 0.317 0.100  12.5
     75. 0.307 0.100  24.6
     90. 0.281 0.100  28.9
    105. 0.271 0.100  28.5
    120. 0.275 0.100  28.6
*PLANTING DETAILS   
   1984361     -99   7.5   7.5     S     R   80.    0.   7.0  -99.  -99. -99.0 -99.0   0.0
*IRRIGATION         
   1.000    0.    0.    0. GS000 IR001   0.0
*FERTILIZERS        
   1984361 FE005   001    5.   10.  -99.  -99.  -99.  -99.   -99
*RESIDUES           
   1984357 RE001     0  0.00  0.00  0.00    0.  -99.   -99
*CHEMICALS          
*TILLAGE            
*ENVIRONMENT        
*HARVEST            
*SOIL               
 EBMZ850001  SCS         -99    120. LATOSSOLO VERMELHO AMARELLO                       
 CPAC        BRASIL      -15.590 -47.700 CLAYEY, OXIDIC, ISOTHERMIC ANIONIC ACRUSTOX       
 RY     0.14   7.1  0.50   76.  1.00  1.00 IB001 IB001 IB001 -99  
    5.       0.191 0.349 0.389 1.000  -99.  0.93 1.810 -99.0 -99.0 -99.0  -9.0  5.90-99.00-99.00  0.00
   15.       0.191 0.349 0.389 1.000  -99.  0.93 1.810 -99.0 -99.0 -99.0  -9.0  5.90-99.00-99.00  0.00
   30.       0.237 0.339 0.367 0.200  -99.  1.03 1.450 -99.0 -99.0 -99.0  -9.0  5.30-99.00-99.00  0.00
   45.       0.250 0.329 0.371 0.200  -99.  1.01 1.200 -99.0 -99.0 -99.0  -9.0  5.20-99.00-99.00  0.00
   60.       0.256 0.329 0.385 0.200  -99.  0.95 1.030 -99.0 -99.0 -99.0  -9.0  4.80-99.00-99.00  0.40
   75.       0.263 0.327 0.389 0.200  -99.  0.93 0.810 -99.0 -99.0 -99.0  -9.0  4.50-99.00-99.00  0.80
   90.       0.266 0.320 0.394 0.200  -99.  0.91 0.760 -99.0 -99.0 -99.0  -9.0  4.70-99.00-99.00  1.00
  105.       0.271 0.323 0.394 0.020  -99.  0.91 0.690 -99.0 -99.0 -99.0  -9.0  4.80-99.00-99.00  1.20
  120.       0.275 0.328 0.394 0.010  -99.  0.91 0.630 -99.0 -99.0 -99.0  -9.0  4.90-99.00-99.00  1.60
                    
    5.-99.00 -99.0 -99.0 -99.0 -99.0 -99.0 -99.0 -99.0 -99.0 -99.0-99.00 -99.0 -99.0 -99.0 -99.0 -99.0  -99.
   15.-99.00 -99.0 -99.0 -99.0 -99.0 -99.0 -99.0 -99.0 -99.0 -99.0-99.00 -99.0 -99.0 -99.0 -99.0 -99.0  -99.
   30.-99.00 -99.0 -99.0 -99.0 -99.0 -99.0 -99.0 -99.0 -99.0 -99.0-99.00 -99.0 -99.0 -99.0 -99.0 -99.0  -99.
   45.-99.00 -99.0 -99.0 -99.0 -99.0 -99.0 -99.0 -99.0 -99.0 -99.0-99.00 -99.0 -99.0 -99.0 -99.0 -99.0  -99.
   60.-99.00 -99.0 -99.0 -99.0 -99.0 -99.0 -99.0 -99.0 -99.0 -99.0-99.00 -99.0 -99.0 -99.0 -99.0 -99.0  -99.
   75.-99.00 -99.0 -99.0 -99.0 -99.0 -99.0 -99.0 -99.0 -99.0 -99.0-99.00 -99.0 -99.0 -99.0 -99.0 -99.0  -99.
   90.-99.00 -99.0 -99.0 -99.0 -99.0 -99.0 -99.0 -99.0 -99.0 -99.0-99.00 -99.0 -99.0 -99.0 -99.0 -99.0  -99.
  105.-99.00 -99.0 -99.0 -99.0 -99.0 -99.0 -99.0 -99.0 -99.0 -99.0-99.00 -99.0 -99.0 -99.0 -99.0 -99.0  -99.
  120.-99.00 -99.0 -99.0 -99.0 -99.0 -99.0 -99.0 -99.0 -99.0 -99.0-99.00 -99.0 -99.0 -99.0 -99.0 -99.0  -99.
                    
    5.-99.00-99.00-99.00-99.00
   15.-99.00-99.00-99.00-99.00
   30.-99.00-99.00-99.00-99.00
   45.-99.00-99.00-99.00-99.00
   60.-99.00-99.00-99.00-99.00
   75.-99.00-99.00-99.00-99.00
   90.-99.00-99.00-99.00-99.00
  105.-99.00-99.00-99.00-99.00
  120.-99.00-99.00-99.00-99.00
*CULTIVAR           
IB0070 CARGILL 111S     IB0001  290.0 0.5001035.0 580.0  5.50 47.00
