*EXP.DETAILS: EBPL8501MZ MAIZE RESPONSE TO MUCUNA GREEN MANURE, BRAZIL               

*FILES
@N  EXP.DATA    AFILE        ADIR
  1 EXP         EBPL8501.MZA C:\DSSAT45\maize\                                                               
@N  SPECIES     SPFILE       SPDIR
  1 SPE         MZCER046.SPE C:\DSSAT45\GENOTYPE\                                                            
@N  ECOTYPE     EFILE        EDIR
  1 ECO         MZCER046.ECO C:\DSSAT45\GENOTYPE\                                                            
@N  CULTIVAR    CFILE        CDIR
  1 CUL         MZCER046.CUL C:\DSSAT45\GENOTYPE\                                                            
@N  SOIL        SFILE        SDIR
  1 SOIL        EB.SOL       C:\DSSAT45\SOIL\                                                                
@N  WEATHER     WFILE        WDIR
  1 WEATH       EBCH8401.WTH C:\DSSAT45\Weather\                                                             

*SIMULATION CONTROL
@N  GENERAL     NYERS NREPS START   SDATE RSEED SNAME.................... MODEL...
  1 GE              1     1     S 1984357  2150 RYL, 1984-85 RAINFED MAI  MZCER046
@N  OPTIONS     WATER NITRO SYMBI PHOSP POTAS DISES  CHEM  TILL   CO2
  1 OP              Y     Y     N     N     N     Y     N     Y     M
@N  METHODS     WTHER INCON LIGHT EVAPO INFIL PHOTO HYDRO NSWIT SOMDY MESEV MESOL METMP
  1 ME              M     M     E     R     S     C     R     1     G     S     2     D
@N  MANAGEMENT  PLANT IRRIG FERTI RESID HARVS
  1 MA              R     R     R     R     M
@N  OUTPUTS     FNAME OVVEW SUMRY FROPT GROUT CAOUT WAOUT NIOUT MIOUT DIOUT  LONG CHOUT OPOUT
  1 OU              N     Y     Y     1     Y     Y     Y     Y     N     Y     Y     N     N

!AUTOMATIC MANAGEM
@N  PLANTING      PFRST   PLAST PH2OL PH2OU PH2OD PSTMX PSTMN
  1 PL          1984354 1985002   40.  100.   30.   40.   10.
@N  IRRIGATION  IMDEP ITHRL ITHRU IROFF IMETH IRAMT IREFF
  1 IR            30.   50.  100. GS000 IR001  10.0 1.000
@N  NITROGEN    NMDEP NMTHR NAMNT NCODE NAOFF
  1 NI            30.   50.   25. FE001 GS000
@N  RESIDUES    RIPCN RTIME RIDEP
  1 RE           100.     1   20.
@N  HARVEST     HFRST   HLAST HPCNP HRCNR
  1 HA              0 1985360  100.    0.

*TREATMENTS
@N   R O C TNAME....................  CU  FL  SA  IC  MP  MI  MF  MR  MC  MT  ME  MH  SM
  1  1 0 0 NO MUCUNA TOPS, MAIZE       1   1   0   1   1   0   1   1   0   0   0   0   1

*CULTIVARS
@C  CR INGENO CNAME
  1 MZ IB0070 CARGILL 111S    

*FIELDS
@L  ID_FIELD WSTA....  FLSA  FLOB  FLDT  FLDD  FLDS  FLST SLTX   SLDP ID_SOIL
  1 EBPL0001 EBCH8401   0.0    0. DR000    0.  100. 00000 -99    120. EBMZ850001
@L             XCRD            YCRD      ELEV              AREA  SLEN  FLWR  SLAS PRMGT
  1         0.00000         0.00000      0.00               1.0  100.   1.0   0.0   -99   -99

*INITIAL CONDITIONS
@C  PCR     ICDAT  ICRT  ICND  ICRN  ICRE  ICWD ICRES ICREN ICREP ICRIP ICRID
  1 MZ    1984357  1000     0  1.00  1.00   0.0     1  1.00  0.00  100.   15.
@C   ICBL  SH2O  SNH4  SNO3
  1    5. 0.311   0.1   5.5
  1   15. 0.311   0.1   5.5
  1   30. 0.317   0.1   4.7
  1   45. 0.327   0.1   4.2
  1   60. 0.317   0.1  12.5
  1   75. 0.307   0.1  24.6
  1   90. 0.281   0.1  28.9
  1  105. 0.271   0.1  28.5
  1  120. 0.275   0.1  28.6

*PLANTING DETAILS
@P    PDATE   EDATE  PPOP  PPOE  PLME  PLDS  PLRS  PLRD  PLDP  PLWT  PAGE  PENV  PLPH  SPRL
  1 1984361     -99   7.5   7.5     S     R   80.    0.   7.0  -99.  -99. -99.0 -99.0   0.0

*IRRIGATION
@I   IEFF  IDEP  ITHR  IEPT  IOFF  IAME  IAMT
  0 1.000    0.    0.    0. GS000 IR001   0.0
@I    IDATE  IROP IRVAL

*FERTILIZERS
@F    FDATE  FMCD  FACD  FDEP  FAMN  FAMP  FAMK  FAMC  FAMO  FOCD
  1 1984361 FE005   001    5.   10.  -99.  -99.  -99.  -99.   -99

*RESIDUES
@R    RDATE  RCOD  RAMT  RESN  RESP  RESK  RINP  RDEP  RMET
  1 1984357 RE001     0  0.00  0.00  0.00    0.  -99.   -99

*CHEMICALS
@C    CDATE CHCOD CHAMT  CHME CHDEP   CHT

*TILLAGE
@T    TDATE TIMPL  TDEP

*ENVIRONMENT
@E    ODATE  EDAY  ERAD  EMAX  EMIN ERAIN  ECO2  EDEW EWIND

*HARVEST
@H    HDATE  HSTG  HCOM HSIZE   HPC  HBPC
